Version 4
SHEET 1 1684 1036
WIRE -480 -240 -512 -240
WIRE -256 -240 -288 -240
WIRE -480 -224 -480 -240
WIRE -592 -96 -608 -96
WIRE -496 -96 -528 -96
WIRE -480 -96 -480 -144
WIRE -480 -96 -496 -96
WIRE -112 -80 -112 -96
WIRE -112 -80 -192 -80
WIRE -48 -80 -112 -80
WIRE 80 -80 80 -96
WIRE 144 -80 80 -80
WIRE 272 -80 272 -96
WIRE 336 -80 272 -80
WIRE 464 -80 464 -96
WIRE 528 -80 464 -80
WIRE 656 -80 656 -96
WIRE 720 -80 656 -80
WIRE -480 -64 -480 -96
WIRE -48 -64 -48 -80
WIRE 144 -64 144 -80
WIRE 336 -64 336 -80
WIRE 528 -64 528 -80
WIRE 720 -64 720 -80
WIRE -192 -48 -192 -80
WIRE -112 -48 -112 -80
WIRE 80 -48 80 -80
WIRE 272 -48 272 -80
WIRE 464 -48 464 -80
WIRE 656 -48 656 -80
WIRE 960 -48 960 -64
WIRE 1104 -48 1104 -64
WIRE -480 32 -480 16
WIRE -480 32 -512 32
WIRE -192 32 -224 32
WIRE -112 32 -192 32
WIRE -48 32 -48 0
WIRE -48 32 -112 32
WIRE 80 32 -48 32
WIRE 144 32 144 0
WIRE 144 32 80 32
WIRE 272 32 144 32
WIRE 336 32 336 0
WIRE 336 32 272 32
WIRE 464 32 336 32
WIRE 528 32 528 0
WIRE 528 32 464 32
WIRE 656 32 528 32
WIRE 720 32 720 0
WIRE 720 32 656 32
WIRE 960 48 960 32
WIRE 960 48 928 48
WIRE 1104 48 1104 32
WIRE 1136 48 1104 48
WIRE 960 64 960 48
WIRE 1104 64 1104 48
WIRE -528 160 -640 160
WIRE 960 160 960 144
WIRE 960 160 928 160
WIRE 1104 160 1104 144
WIRE 1136 160 1104 160
WIRE 960 176 960 160
WIRE 1104 176 1104 160
WIRE -528 208 -528 160
WIRE 960 272 960 256
WIRE 960 272 928 272
WIRE 1104 272 1104 256
WIRE 1136 272 1104 272
WIRE -432 288 -432 256
WIRE 960 288 960 272
WIRE 1104 288 1104 272
WIRE -624 304 -640 304
WIRE -528 304 -528 288
WIRE -528 304 -544 304
WIRE -112 368 -112 352
WIRE -48 368 -112 368
WIRE 80 368 80 352
WIRE 144 368 80 368
WIRE 272 368 272 352
WIRE 336 368 272 368
WIRE 464 368 464 352
WIRE 528 368 464 368
WIRE 656 368 656 352
WIRE 720 368 656 368
WIRE -432 384 -432 368
WIRE -432 384 -624 384
WIRE -48 384 -48 368
WIRE 144 384 144 368
WIRE 336 384 336 368
WIRE 528 384 528 368
WIRE 720 384 720 368
WIRE 960 384 960 368
WIRE 960 384 928 384
WIRE 1104 384 1104 368
WIRE 1136 384 1104 384
WIRE -112 400 -112 368
WIRE 80 400 80 368
WIRE 272 400 272 368
WIRE 464 400 464 368
WIRE 656 400 656 368
WIRE 960 400 960 384
WIRE 1104 400 1104 384
WIRE -112 480 -176 480
WIRE -48 480 -48 448
WIRE -48 480 -112 480
WIRE 80 480 -48 480
WIRE 144 480 144 448
WIRE 144 480 80 480
WIRE 272 480 144 480
WIRE 336 480 336 448
WIRE 336 480 272 480
WIRE 464 480 336 480
WIRE 528 480 528 448
WIRE 528 480 464 480
WIRE 656 480 528 480
WIRE 720 480 720 448
WIRE 720 480 656 480
WIRE 960 496 960 480
WIRE 960 496 928 496
WIRE 1104 496 1104 480
WIRE 1104 496 960 496
WIRE -624 576 -656 576
WIRE -528 576 -624 576
WIRE -624 592 -624 576
WIRE -528 592 -528 576
WIRE -624 688 -624 672
WIRE -624 688 -656 688
WIRE -528 688 -528 672
WIRE -528 688 -624 688
FLAG -288 -240 Sig
IOPIN -288 -240 In
FLAG 960 -64 Rlo
IOPIN 960 -64 BiDir
FLAG -112 -96 L1
IOPIN -112 -96 Out
FLAG -224 32 V-
IOPIN -224 32 In
FLAG 80 -96 L2
IOPIN 80 -96 Out
FLAG 272 -96 L3
IOPIN 272 -96 Out
FLAG 464 -96 L4
IOPIN 464 -96 Out
FLAG 656 -96 L5
IOPIN 656 -96 Out
FLAG -112 352 L6
IOPIN -112 352 Out
FLAG 80 352 L7
IOPIN 80 352 Out
FLAG 272 352 L8
IOPIN 272 352 Out
FLAG 464 352 L9
IOPIN 464 352 Out
FLAG 656 352 L10
IOPIN 656 352 Out
FLAG -640 160 Ref
IOPIN -640 160 Out
FLAG 1104 -64 Rhi
IOPIN 1104 -64 In
FLAG -608 -96 Bar/_dot
IOPIN -608 -96 In
FLAG -656 576 V+
IOPIN -656 576 In
FLAG -176 480 V-
IOPIN -176 480 In
FLAG -656 688 V-
IOPIN -656 688 In
FLAG -624 384 Adj
IOPIN -624 384 BiDir
FLAG -432 256 V+
IOPIN -432 256 In
FLAG -640 304 V-
IOPIN -640 304 In
FLAG -496 -96 m
FLAG -512 -240 V+
IOPIN -512 -240 In
FLAG -512 32 V-
IOPIN -512 32 In
FLAG 928 48 d1
FLAG 928 160 d2
FLAG 928 272 d3
FLAG 928 384 d4
FLAG 928 496 d5
FLAG 1136 384 d6
FLAG 1136 272 d7
FLAG 1136 160 d8
FLAG 1136 48 d9
SYMBOL bi -112 -48 R0
WINDOW 3 -180 146 Left 2
WINDOW 0 4 -9 Left 2
SYMATTR Value I=1u-10*i(rs)*(v(sig)>v(rlo))*((v(sig)<(v(d1)+1m))|(v(m)+0.1>=v(v+)))
SYMATTR InstName B1
SYMBOL bi 80 -48 R0
WINDOW 3 -291 183 Left 2
WINDOW 0 4 -6 Left 2
SYMATTR Value I=1u-10*i(rs)*(v(sig)>v(d1))*((v(sig)<v(d2)+1m)|(v(m)+0.1>=v(v+)))
SYMATTR InstName B2
SYMBOL bi 272 -48 R0
WINDOW 3 -316 221 Left 2
WINDOW 0 4 -10 Left 2
SYMATTR Value I=1u-10*i(rs)*(v(sig)>v(d2))*((v(sig)<v(d3)+1m)|(v(m)+0.1>=v(v+)))
SYMATTR InstName B3
SYMBOL bi 464 -48 R0
WINDOW 3 -377 254 Left 2
WINDOW 0 3 -9 Left 2
SYMATTR Value I=1u-10*i(rs)*(v(sig)>v(d3))*((v(sig)<v(d4)+1m)|(v(m)+0.1>=v(v+)))
SYMATTR InstName B4
SYMBOL bi 656 -48 R0
WINDOW 3 -472 284 Left 2
WINDOW 0 5 -12 Left 2
SYMATTR Value I=1u-10*i(rs)*(v(sig)>v(d4))*((v(sig)<v(d5)+1m)|(v(m)+0.1>=v(v+)))
SYMATTR InstName B5
SYMBOL bi -112 400 R0
WINDOW 3 -203 117 Left 2
WINDOW 0 6 -10 Left 2
SYMATTR Value I=1u-10*i(rs)*(v(sig)>v(d5))*((v(sig)<v(d6)+1m)|(v(m)+0.1>=v(v+)))
SYMATTR InstName B6
SYMBOL bi 80 400 R0
WINDOW 3 -284 154 Left 2
WINDOW 0 9 -9 Left 2
SYMATTR Value I=1u-10*i(rs)*(v(sig)>v(d6))*((v(sig)<v(d7)+1m)|(v(m)+0.1>=v(v+)))
SYMATTR InstName B7
SYMBOL bi 272 400 R0
WINDOW 3 -349 193 Left 2
WINDOW 0 4 -8 Left 2
SYMATTR Value I=1u-10*i(rs)*(v(sig)>v(d7))*((v(sig)<v(d8)+1m)|(v(m)+0.1>=v(v+)))
SYMATTR InstName B8
SYMBOL bi 464 400 R0
WINDOW 3 -416 234 Left 2
WINDOW 0 5 -8 Left 2
SYMATTR Value I=1u-10*i(rs)*(v(sig)>v(d8))*((v(sig)<v(d9)+1m)|(v(m)+0.1>=v(v+)))
SYMATTR InstName B9
SYMBOL bi 656 400 R0
WINDOW 3 -512 275 Left 2
WINDOW 0 4 -8 Left 2
SYMATTR Value I=1u-10*i(rs)*(v(sig)>v(d9))*((v(m)+0.1>=v(v+))|(v(m)>=v(L9)-0.9))
SYMATTR InstName B10
SYMBOL res -640 576 R0
SYMATTR InstName Ric
SYMATTR Value 4k
SYMBOL diode -32 0 R180
WINDOW 0 -20 64 Left 2
WINDOW 3 24 0 Left 2
SYMATTR InstName D1
SYMBOL diode 160 0 R180
WINDOW 0 -21 64 Left 2
WINDOW 3 24 0 Left 2
SYMATTR InstName D2
SYMBOL diode 352 0 R180
WINDOW 0 -20 64 Left 2
WINDOW 3 24 0 Left 2
SYMATTR InstName D3
SYMBOL diode 544 0 R180
WINDOW 0 -18 67 Left 2
WINDOW 3 24 0 Left 2
SYMATTR InstName D4
SYMBOL diode 736 0 R180
WINDOW 0 -19 65 Left 2
WINDOW 3 24 0 Left 2
SYMATTR InstName D5
SYMBOL diode -32 448 R180
WINDOW 0 -17 66 Left 2
WINDOW 3 24 0 Left 2
SYMATTR InstName D6
SYMBOL diode 160 448 R180
WINDOW 0 -19 67 Left 2
WINDOW 3 24 0 Left 2
SYMATTR InstName D7
SYMBOL diode 352 448 R180
WINDOW 0 -19 65 Left 2
WINDOW 3 24 0 Left 2
SYMATTR InstName D8
SYMBOL diode 544 448 R180
WINDOW 0 -21 66 Left 2
WINDOW 3 24 0 Left 2
SYMATTR InstName D9
SYMBOL diode 736 448 R180
WINDOW 0 -32 68 Left 2
WINDOW 3 24 0 Left 2
SYMATTR InstName D10
SYMBOL res -464 -80 M0
SYMATTR InstName Rm2
SYMATTR Value 10meg
SYMBOL current -432 288 R0
WINDOW 123 0 0 Left 2
WINDOW 39 0 0 Left 2
WINDOW 3 38 27 Left 2
SYMATTR Value 75µ
SYMATTR InstName I1
SYMBOL res -528 320 M270
WINDOW 3 0 56 VBottom 2
WINDOW 0 32 56 VTop 2
SYMATTR Value 50
SYMATTR InstName Rs
SYMBOL bv -528 192 R0
WINDOW 3 -169 230 Left 2
SYMATTR Value V=min(v(v+)-v(v-)-.3,1.25+v(adj)-v(v-))
SYMATTR InstName B11
SYMBOL bi -192 -48 R0
WINDOW 3 -186 112 Left 2
WINDOW 0 4 -9 Left 2
SYMATTR Value I=150u*(v(m)<(v(v+)-0.1))*(v(sig)>v(rlo))
SYMATTR InstName B1a
SYMBOL bi -528 592 R0
WINDOW 3 -56 121 Left 2
SYMATTR Value I=1m1-4*i(B11)
SYMATTR InstName B15
SYMBOL res -464 -240 M0
SYMATTR InstName Rm1
SYMATTR Value 350k
SYMBOL res 944 -64 R0
SYMATTR InstName R1
SYMATTR Value 0.39k
SYMBOL res 944 48 R0
SYMATTR InstName R2
SYMATTR Value 0.53k
SYMBOL res 944 160 R0
SYMATTR InstName R3
SYMATTR Value 0.76k
SYMBOL res 944 272 R0
SYMATTR InstName R4
SYMATTR Value 1.07k
SYMBOL res 944 384 R0
SYMATTR InstName R5
SYMATTR Value 1.51k
SYMBOL res 1088 496 M180
WINDOW 0 36 76 Left 2
WINDOW 3 36 40 Left 2
SYMATTR InstName R6
SYMATTR Value 2.14k
SYMBOL res 1088 384 M180
WINDOW 0 36 76 Left 2
WINDOW 3 36 40 Left 2
SYMATTR InstName R7
SYMATTR Value 3.03k
SYMBOL res 1088 272 M180
WINDOW 0 36 76 Left 2
WINDOW 3 36 40 Left 2
SYMATTR InstName R8
SYMATTR Value 4.28k
SYMBOL res 1088 160 M180
WINDOW 0 36 76 Left 2
WINDOW 3 36 40 Left 2
SYMATTR InstName R9
SYMATTR Value 6.06k
SYMBOL res 1088 48 M180
WINDOW 0 36 76 Left 2
WINDOW 3 36 40 Left 2
SYMATTR InstName R10
SYMATTR Value 8.57k
SYMBOL Misc\\jumper -560 -160 R0
SYMATTR InstName X1
TEXT -736 576 Left 2 ;3
TEXT -728 -96 Left 2 ;9
TEXT -376 -240 Left 2 ;5
TEXT -728 160 Left 2 ;7
TEXT 1096 -168 Left 2 ;6
TEXT -736 384 Left 2 ;8
TEXT 952 -168 Left 2 ;4
TEXT -72 -344 Left 4 ;LM3915
TEXT -120 -168 Left 2 ;1
TEXT 64 -168 Left 2 ;18
TEXT 256 -168 Left 2 ;17
TEXT 448 -168 Left 2 ;16
TEXT 640 -168 Left 2 ;15
TEXT -120 280 Left 2 ;14
TEXT 64 280 Left 2 ;13
TEXT 256 280 Left 2 ;12
TEXT 448 280 Left 2 ;11
TEXT 640 272 Left 2 ;10
TEXT -632 544 Left 2 ;Supply current
TEXT -736 688 Left 2 ;2
TEXT 72 752 Left 2 ;Limitations / assumptions / approximations :-
TEXT -736 304 Left 2 ;2
TEXT -544 784 Left 2 ;Pin 9 bias arrangement, Ref source resistance Rs, and Ref plateau at V+ -0.3 are speculative. Clamp diodes D1-D10 are a kludge to prevent B1-B10 producing\nfatal run-time errors in the sim for unconnected pins, so introduce slight inaccuracy. Temperature dependence and comparator offsets are not modelled.
TEXT 96 -344 Left 2 ;[ Model by Geoff Western, aka alec_t ]
TEXT -640 120 Left 2 ;Ref source
TEXT -560 -280 Left 2 ;Mode
TEXT 960 -264 Left 2 ;Divider ladder
TEXT 88 -208 Left 2 ;Display current sources x 10
TEXT -592 32 Left 2 ;2
TEXT -592 -240 Left 2 ;3
TEXT 976 -232 Left 2 ;(Rtotal ~28k)
TEXT -64 -288 Left 4 ;v1.0
LINE Normal 552 -408 552 -376
LINE Normal 552 -392 552 -360
LINE Normal 584 -360 584 -328
CIRCLE Normal 584 -344 552 -376
ARC Normal 552 -344 584 -312 554 -328 590 -328
ARC Normal 584 -344 616 -312 586 -328 622 -328
