Version 4
SHEET 1 880 680
WIRE 144 96 96 96
WIRE 320 96 208 96
FLAG 208 176 0
FLAG 400 160 0
FLAG 96 176 0
FLAG 400 96 out
FLAG 96 96 in
SYMBOL cap 208 80 R90
WINDOW 0 0 32 VBottom 2
WINDOW 3 32 32 VTop 2
SYMATTR InstName C1
SYMATTR Value 35n
SYMBOL res 192 80 R0
SYMATTR InstName R1
SYMATTR Value 10k
SYMBOL res 416 80 R90
WINDOW 0 0 56 VBottom 2
WINDOW 3 32 56 VTop 2
SYMATTR InstName R2
SYMATTR Value 10k
SYMBOL cap 384 96 R0
WINDOW 0 57 32 Left 2
SYMATTR InstName C2
SYMATTR Value 29n
SYMBOL voltage 96 80 R0
WINDOW 3 -176 84 Left 2
WINDOW 123 -176 112 Left 2
WINDOW 39 0 0 Left 0
SYMATTR Value SINE(0 1 500)
SYMATTR Value2 AC 1 0
SYMATTR InstName V1
TEXT 144 232 Left 2 ;HPF 450hz
TEXT 320 224 Left 2 ;LPF 550hz
TEXT -80 256 Left 2 !.ac dec 100 1 200000000
